data_image0
_cell_length_a       5.83471
_cell_length_b       7.12473
_cell_length_c       7.47568
_cell_angle_alpha    77.8056
_cell_angle_beta     97.1495
_cell_angle_gamma    78.3015

_symmetry_space_group_name_H-M    "P 1"
_symmetry_int_tables_number       1

loop_
  _symmetry_equiv_pos_as_xyz
  'x, y, z'

loop_
  _atom_site_label
  _atom_site_occupancy
  _atom_site_fract_x
  _atom_site_fract_y
  _atom_site_fract_z
  _atom_site_thermal_displace_type
  _atom_site_B_iso_or_equiv
  _atom_site_type_symbol
  Bi1      1.0000 0.65628  0.64819  0.37423  Biso   1.000  Bi
  Bi2      1.0000 0.98428  0.05982  0.26658  Biso   1.000  Bi
  Bi3      1.0000 0.70839  0.41498  0.80535  Biso   1.000  Bi
  Fe1      1.0000 0.16509  0.57353  0.20319  Biso   1.000  Fe
  Fe2      1.0000 0.49108  0.10079  0.44229  Biso   1.000  Fe
  Fe3      1.0000 0.22037  0.31133  0.62591  Biso   1.000  Fe
  Fe4      1.0000 0.31440  0.25654  0.04216  Biso   1.000  Fe
  La1      1.0000 0.98889  0.91054  0.77176  Biso   1.000  La
  O1       1.0000 0.95080  0.83107  0.11393  Biso   1.000  O
  O2       1.0000 0.45547  0.36458  0.24784  Biso   1.000  O
  O3       1.0000 0.20571  0.03132  0.54538  Biso   1.000  O
  O4       1.0000 0.10902  0.55260  0.91288  Biso   1.000  O
  O5       1.0000 0.07552  0.19977  0.85200  Biso   1.000  O
  O6       1.0000 0.25712  0.56259  0.75565  Biso   1.000  O
  O7       1.0000 0.79723  0.88130  0.48010  Biso   1.000  O
  O8       1.0000 0.58934  0.17967  0.69347  Biso   1.000  O
  O9       1.0000 0.36158  0.99908  0.22283  Biso   1.000  O
  O10      1.0000 0.00276  0.45563  0.39445  Biso   1.000  O
