data_image0
_cell_length_a       2.95609
_cell_length_b       9.94366
_cell_length_c       2.9538
_cell_angle_alpha    90.0614
_cell_angle_beta     119.925
_cell_angle_gamma    89.9681

_symmetry_space_group_name_H-M    "P 1"
_symmetry_int_tables_number       1

loop_
  _symmetry_equiv_pos_as_xyz
  'x, y, z'

loop_
  _atom_site_label
  _atom_site_occupancy
  _atom_site_fract_x
  _atom_site_fract_y
  _atom_site_fract_z
  _atom_site_thermal_displace_type
  _atom_site_B_iso_or_equiv
  _atom_site_type_symbol
  Cr1      1.0000 0.98608  0.54878  0.95795  Biso   1.000  Cr
  Cr2      1.0000 0.98582  0.04918  0.95827  Biso   1.000  Cr
  Cu1      1.0000 0.31988  0.75104  0.62227  Biso   1.000  Cu
  Cu2      1.0000 0.65339  0.25107  0.29590  Biso   1.000  Cu
  O1       1.0000 0.65242  0.44982  0.29108  Biso   1.000  O
  O2       1.0000 0.31907  0.95010  0.62454  Biso   1.000  O
