data_image0
_cell_length_a       8.20656
_cell_length_b       10.8621
_cell_length_c       7.1695
_cell_angle_alpha    29.2068
_cell_angle_beta     55.2048
_cell_angle_gamma    41.2036

_symmetry_space_group_name_H-M    "P 1"
_symmetry_int_tables_number       1

loop_
  _symmetry_equiv_pos_as_xyz
  'x, y, z'

loop_
  _atom_site_label
  _atom_site_occupancy
  _atom_site_fract_x
  _atom_site_fract_y
  _atom_site_fract_z
  _atom_site_thermal_displace_type
  _atom_site_B_iso_or_equiv
  _atom_site_type_symbol
  Li1      1.0000 0.48520  0.00324  0.98654  Biso   1.000  Li
  Li2      1.0000 0.22032  0.51915  0.95381  Biso   1.000  Li
  Se1      1.0000 0.22846  0.00901  0.47380  Biso   1.000  Se
  Se2      1.0000 0.73331  0.00891  0.46439  Biso   1.000  Se
  Se3      1.0000 0.47964  0.51322  0.46094  Biso   1.000  Se
  Se4      1.0000 0.97800  0.50941  0.47339  Biso   1.000  Se
  Sm1      1.0000 0.97701  0.01223  0.96657  Biso   1.000  Sm
  Sm2      1.0000 0.73140  0.50817  0.97057  Biso   1.000  Sm
