data_image0
_cell_length_a       4.12941
_cell_length_b       4.2012
_cell_length_c       6.05698
_cell_angle_alpha    89.9712
_cell_angle_beta     89.8687
_cell_angle_gamma    90.1778

_symmetry_space_group_name_H-M    "P 1"
_symmetry_int_tables_number       1

loop_
  _symmetry_equiv_pos_as_xyz
  'x, y, z'

loop_
  _atom_site_label
  _atom_site_occupancy
  _atom_site_fract_x
  _atom_site_fract_y
  _atom_site_fract_z
  _atom_site_thermal_displace_type
  _atom_site_B_iso_or_equiv
  _atom_site_type_symbol
  As1      1.0000 0.99985  0.51524  0.28040  Biso   1.000  As
  As2      1.0000 0.50055  0.01262  0.74795  Biso   1.000  As
  Li1      1.0000 0.49967  0.51277  0.01088  Biso   1.000  Li
  Li2      1.0000 0.99884  0.01632  0.01638  Biso   1.000  Li
  Li3      1.0000 0.50042  0.51225  0.51666  Biso   1.000  Li
  Mn1      1.0000 0.00066  0.01414  0.51105  Biso   1.000  Mn
