data_image0
_cell_length_a       4.33324
_cell_length_b       6.1603
_cell_length_c       4.33436
_cell_angle_alpha    69.2618
_cell_angle_beta     60.1294
_cell_angle_gamma    69.3298

_symmetry_space_group_name_H-M    "P 1"
_symmetry_int_tables_number       1

loop_
  _symmetry_equiv_pos_as_xyz
  'x, y, z'

loop_
  _atom_site_label
  _atom_site_occupancy
  _atom_site_fract_x
  _atom_site_fract_y
  _atom_site_fract_z
  _atom_site_thermal_displace_type
  _atom_site_B_iso_or_equiv
  _atom_site_type_symbol
  Ac1      1.0000 0.24831  0.24683  0.27279  Biso   1.000  Ac
  Al1      1.0000 0.44982  0.65149  0.46977  Biso   1.000  Al
  Al2      1.0000 0.05282  0.84576  0.07228  Biso   1.000  Al
  Os1      1.0000 0.74905  0.75592  0.76849  Biso   1.000  Os
