data_image0
_cell_length_a       5.59959
_cell_length_b       5.60384
_cell_length_c       5.60128
_cell_angle_alpha    89.9933
_cell_angle_beta     60.0883
_cell_angle_gamma    120.068

_symmetry_space_group_name_H-M    "P 1"
_symmetry_int_tables_number       1

loop_
  _symmetry_equiv_pos_as_xyz
  'x, y, z'

loop_
  _atom_site_label
  _atom_site_occupancy
  _atom_site_fract_x
  _atom_site_fract_y
  _atom_site_fract_z
  _atom_site_thermal_displace_type
  _atom_site_B_iso_or_equiv
  _atom_site_type_symbol
  Al1      1.0000 0.76389  0.38960  0.88825  Biso   1.000  Al
  Al2      1.0000 0.26371  0.38818  0.38927  Biso   1.000  Al
  Al3      1.0000 0.26321  0.88836  0.39047  Biso   1.000  Al
  Al4      1.0000 0.76567  0.39003  0.38751  Biso   1.000  Al
  Ho1      1.0000 0.51318  0.76336  0.76382  Biso   1.000  Ho
  Pm1      1.0000 0.01366  0.01380  0.01403  Biso   1.000  Pm
