data_image0
_cell_length_a       5.58828
_cell_length_b       5.6128
_cell_length_c       5.63542
_cell_angle_alpha    59.9476
_cell_angle_beta     60.075
_cell_angle_gamma    60.2098

_symmetry_space_group_name_H-M    "P 1"
_symmetry_int_tables_number       1

loop_
  _symmetry_equiv_pos_as_xyz
  'x, y, z'

loop_
  _atom_site_label
  _atom_site_occupancy
  _atom_site_fract_x
  _atom_site_fract_y
  _atom_site_fract_z
  _atom_site_thermal_displace_type
  _atom_site_B_iso_or_equiv
  _atom_site_type_symbol
  Cu1      1.0000 0.25000  0.25000  0.25000  Biso   1.000  Cu
  Pb1      1.0000 0.75000  0.75000  0.75000  Biso   1.000  Pb
  Sr1      1.0000 0.50044  0.50002  0.49980  Biso   1.000  Sr
  Sr2      1.0000 0.99956  0.99998  0.00020  Biso   1.000  Sr
