data_image0
_cell_length_a       4.84043
_cell_length_b       4.65201
_cell_length_c       9.23714
_cell_angle_alpha    90.4869
_cell_angle_beta     90
_cell_angle_gamma    90

_symmetry_space_group_name_H-M    "P 1"
_symmetry_int_tables_number       1

loop_
  _symmetry_equiv_pos_as_xyz
  'x, y, z'

loop_
  _atom_site_label
  _atom_site_occupancy
  _atom_site_fract_x
  _atom_site_fract_y
  _atom_site_fract_z
  _atom_site_thermal_displace_type
  _atom_site_B_iso_or_equiv
  _atom_site_type_symbol
  Gd1      1.0000 0.00000  0.99007  0.98691  Biso   1.000  Gd
  Gd2      1.0000 0.00000  0.98837  0.49227  Biso   1.000  Gd
  In1      1.0000 0.50000  0.49099  0.99295  Biso   1.000  In
  In2      1.0000 0.50000  0.48726  0.48593  Biso   1.000  In
  In3      1.0000 0.50000  0.98911  0.24016  Biso   1.000  In
  Sn1      1.0000 0.50000  0.99079  0.73924  Biso   1.000  Sn
  Sn2      1.0000 0.00000  0.48939  0.23964  Biso   1.000  Sn
  Sn3      1.0000 0.00000  0.49070  0.73957  Biso   1.000  Sn
