data_image0
_cell_length_a       3.87372
_cell_length_b       3.8672
_cell_length_c       7.88208
_cell_angle_alpha    75.8194
_cell_angle_beta     75.7099
_cell_angle_gamma    60.1251

_symmetry_space_group_name_H-M    "P 1"
_symmetry_int_tables_number       1

loop_
  _symmetry_equiv_pos_as_xyz
  'x, y, z'

loop_
  _atom_site_label
  _atom_site_occupancy
  _atom_site_fract_x
  _atom_site_fract_y
  _atom_site_fract_z
  _atom_site_thermal_displace_type
  _atom_site_B_iso_or_equiv
  _atom_site_type_symbol
  Rb1      1.0000 0.00515  0.00209  0.04165  Biso   1.000  Rb
  S1       1.0000 0.77146  0.77121  0.72485  Biso   1.000  S
  S2       1.0000 0.22723  0.22683  0.35827  Biso   1.000  S
  Sc1      1.0000 0.49616  0.49987  0.54189  Biso   1.000  Sc
