data_image0
_cell_length_a       4.37661
_cell_length_b       5.64261
_cell_length_c       4.58932
_cell_angle_alpha    63.4986
_cell_angle_beta     57.8023
_cell_angle_gamma    64.8787

_symmetry_space_group_name_H-M    "P 1"
_symmetry_int_tables_number       1

loop_
  _symmetry_equiv_pos_as_xyz
  'x, y, z'

loop_
  _atom_site_label
  _atom_site_occupancy
  _atom_site_fract_x
  _atom_site_fract_y
  _atom_site_fract_z
  _atom_site_thermal_displace_type
  _atom_site_B_iso_or_equiv
  _atom_site_type_symbol
  Mg1      1.0000 0.00511  0.95846  0.01134  Biso   1.000  Mg
  Sb1      1.0000 0.23967  0.18826  0.27319  Biso   1.000  Sb
  Y1       1.0000 0.44615  0.53565  0.49597  Biso   1.000  Y
