data_image0
_cell_length_a       4.89765
_cell_length_b       4.90532
_cell_length_c       4.58053
_cell_angle_alpha    56.9573
_cell_angle_beta     57.0634
_cell_angle_gamma    59.6044

_symmetry_space_group_name_H-M    "P 1"
_symmetry_int_tables_number       1

loop_
  _symmetry_equiv_pos_as_xyz
  'x, y, z'

loop_
  _atom_site_label
  _atom_site_occupancy
  _atom_site_fract_x
  _atom_site_fract_y
  _atom_site_fract_z
  _atom_site_thermal_displace_type
  _atom_site_B_iso_or_equiv
  _atom_site_type_symbol
  Pd1      1.0000 0.72436  0.77413  0.78366  Biso   1.000  Pd
  Tl1      1.0000 0.98947  0.03648  0.98972  Biso   1.000  Tl
  Tm1      1.0000 0.46922  0.51566  0.55523  Biso   1.000  Tm
