data_image0
_cell_length_a       4.74737
_cell_length_b       4.78541
_cell_length_c       4.78097
_cell_angle_alpha    59.6257
_cell_angle_beta     59.768
_cell_angle_gamma    59.7949

_symmetry_space_group_name_H-M    "P 1"
_symmetry_int_tables_number       1

loop_
  _symmetry_equiv_pos_as_xyz
  'x, y, z'

loop_
  _atom_site_label
  _atom_site_occupancy
  _atom_site_fract_x
  _atom_site_fract_y
  _atom_site_fract_z
  _atom_site_thermal_displace_type
  _atom_site_B_iso_or_equiv
  _atom_site_type_symbol
  Hf1      1.0000 0.26904  0.22504  0.25861  Biso   1.000  Hf
  Pd1      1.0000 0.01881  0.97556  0.01016  Biso   1.000  Pd
  Pd2      1.0000 0.51849  0.47564  0.50835  Biso   1.000  Pd
  Yb1      1.0000 0.76852  0.72455  0.75905  Biso   1.000  Yb
