data_image0
_cell_length_a       3.65452
_cell_length_b       6.53499
_cell_length_c       7.63804
_cell_angle_alpha    115.078
_cell_angle_beta     103.918
_cell_angle_gamma    90.0724

_symmetry_space_group_name_H-M    "P 1"
_symmetry_int_tables_number       1

loop_
  _symmetry_equiv_pos_as_xyz
  'x, y, z'

loop_
  _atom_site_label
  _atom_site_occupancy
  _atom_site_fract_x
  _atom_site_fract_y
  _atom_site_fract_z
  _atom_site_thermal_displace_type
  _atom_site_B_iso_or_equiv
  _atom_site_type_symbol
  Pa1      1.0000 0.01905  0.98679  0.97650  Biso   1.000  Pa
  Se1      1.0000 0.66967  0.96557  0.27330  Biso   1.000  Se
  Se2      1.0000 0.37337  0.00902  0.68073  Biso   1.000  Se
  Se3      1.0000 0.90145  0.51431  0.73098  Biso   1.000  Se
  Se4      1.0000 0.14525  0.45890  0.22362  Biso   1.000  Se
  Ti1      1.0000 0.77097  0.68706  0.47603  Biso   1.000  Ti
  Ti2      1.0000 0.27236  0.28743  0.47786  Biso   1.000  Ti
