data_image0
_cell_length_a       3.28424
_cell_length_b       5.26911
_cell_length_c       6.52095
_cell_angle_alpha    73.6684
_cell_angle_beta     89.8159
_cell_angle_gamma    108.55

_symmetry_space_group_name_H-M    "P 1"
_symmetry_int_tables_number       1

loop_
  _symmetry_equiv_pos_as_xyz
  'x, y, z'

loop_
  _atom_site_label
  _atom_site_occupancy
  _atom_site_fract_x
  _atom_site_fract_y
  _atom_site_fract_z
  _atom_site_thermal_displace_type
  _atom_site_B_iso_or_equiv
  _atom_site_type_symbol
  Fe1      1.0000 0.29032  0.55769  0.36845  Biso   1.000  Fe
  Gd1      1.0000 0.01534  0.03050  0.99670  Biso   1.000  Gd
  Gd2      1.0000 0.03251  0.98730  0.50372  Biso   1.000  Gd
  Ni1      1.0000 0.33898  0.64258  0.84361  Biso   1.000  Ni
  Ni2      1.0000 0.73014  0.43162  0.13935  Biso   1.000  Ni
  Ni3      1.0000 0.71506  0.40113  0.66049  Biso   1.000  Ni
