data_image0
_cell_length_a       3.94199
_cell_length_b       4.0806
_cell_length_c       6.36957
_cell_angle_alpha    106.678
_cell_angle_beta     105.967
_cell_angle_gamma    89.5296

_symmetry_space_group_name_H-M    "P 1"
_symmetry_int_tables_number       1

loop_
  _symmetry_equiv_pos_as_xyz
  'x, y, z'

loop_
  _atom_site_label
  _atom_site_occupancy
  _atom_site_fract_x
  _atom_site_fract_y
  _atom_site_fract_z
  _atom_site_thermal_displace_type
  _atom_site_B_iso_or_equiv
  _atom_site_type_symbol
  Al1      1.0000 0.26522  0.77390  0.49456  Biso   1.000  Al
  Al2      1.0000 0.77568  0.24941  0.47819  Biso   1.000  Al
  Ge1      1.0000 0.62626  0.61747  0.20033  Biso   1.000  Ge
  Ge2      1.0000 0.41476  0.40576  0.77270  Biso   1.000  Ge
  U1       1.0000 0.01988  0.01070  0.98597  Biso   1.000  U
