# generated using pymatgen
data_FeP4
_symmetry_space_group_name_H-M   'P 1'
_cell_length_a   4.60763086
_cell_length_b   6.98512756
_cell_length_c   13.61758449
_cell_angle_alpha   90.00000000
_cell_angle_beta   90.00000000
_cell_angle_gamma   101.53449036
_symmetry_Int_Tables_number   1
_chemical_formula_structural   FeP4
_chemical_formula_sum   'Fe6 P24'
_cell_volume   429.42916240
_cell_formula_units_Z   6
loop_
 _symmetry_equiv_pos_site_id
 _symmetry_equiv_pos_as_xyz
  1  'x, y, z'
loop_
 _atom_site_type_symbol
 _atom_site_label
 _atom_site_symmetry_multiplicity
 _atom_site_fract_x
 _atom_site_fract_y
 _atom_site_fract_z
 _atom_site_occupancy
  Fe  Fe0  1  0.85777699  0.11872556  0.66945372  1
  Fe  Fe1  1  0.14222301  0.38127444  0.16945372  1
  Fe  Fe2  1  0.14222301  0.88127444  0.33054628  1
  Fe  Fe3  1  0.85777699  0.61872556  0.83054628  1
  Fe  Fe4  1  -0.00000000  0.50000000  0.50000000  1
  Fe  Fe5  1  -0.00000000  0.00000000  0.00000000  1
  P  P6  1  0.50741310  0.03130069  0.78070043  1
  P  P7  1  0.49258690  0.46869931  0.28070043  1
  P  P8  1  0.49258690  0.96869931  0.21930057  1
  P  P9  1  0.50741310  0.53130069  0.71929957  1
  P  P10  1  0.07325532  0.36425855  0.77510540  1
  P  P11  1  0.92674468  0.13574145  0.27510540  1
  P  P12  1  0.80333970  0.24945716  0.05347034  1
  P  P13  1  0.19666030  0.25054284  0.55347034  1
  P  P14  1  0.19666030  0.75054284  0.94652966  1
  P  P15  1  0.80333970  0.74945716  0.44652966  1
  P  P16  1  0.65420486  0.85345047  0.89271159  1
  P  P17  1  0.34579514  0.64654953  0.39271159  1
  P  P18  1  0.34579514  0.14654953  0.10728841  1
  P  P19  1  0.65420486  0.35345047  0.60728841  1
  P  P20  1  0.73596711  0.80458899  0.11297411  1
  P  P21  1  0.26403289  0.69541101  0.61297411  1
  P  P22  1  0.26403289  0.19541101  0.88702589  1
  P  P23  1  0.73596711  0.30458899  0.38702589  1
  P  P24  1  0.63129268  0.92931953  0.55585917  1
  P  P25  1  0.36870732  0.57068047  0.05585917  1
  P  P26  1  0.36870732  0.07068047  0.44414083  1
  P  P27  1  0.63129268  0.42931953  0.94414083  1
  P  P28  1  0.07325532  0.86425855  0.72489460  1
  P  P29  1  0.92674468  0.63574145  0.22489460  1
