data_image0
_cell_length_a       5.0866
_cell_length_b       5.08943
_cell_length_c       5.08688
_cell_angle_alpha    60.1383
_cell_angle_beta     60.1883
_cell_angle_gamma    60.2222

_symmetry_space_group_name_H-M    "P 1"
_symmetry_int_tables_number       1

loop_
  _symmetry_equiv_pos_as_xyz
  'x, y, z'

loop_
  _atom_site_label
  _atom_site_occupancy
  _atom_site_fract_x
  _atom_site_fract_y
  _atom_site_fract_z
  _atom_site_thermal_displace_type
  _atom_site_B_iso_or_equiv
  _atom_site_type_symbol
  Pd1      1.0000 0.00569  0.02596  0.00723  Biso   1.000  Pd
  Pd2      1.0000 0.51025  0.51716  0.50492  Biso   1.000  Pd
  Pm1      1.0000 0.75802  0.77109  0.75562  Biso   1.000  Pm
  Pm2      1.0000 0.25829  0.27142  0.25602  Biso   1.000  Pm
