data_image0
_cell_length_a       4.61277
_cell_length_b       5.29462
_cell_length_c       5.3352
_cell_angle_alpha    50.6589
_cell_angle_beta     64.0491
_cell_angle_gamma    64.8077

_symmetry_space_group_name_H-M    "P 1"
_symmetry_int_tables_number       1

loop_
  _symmetry_equiv_pos_as_xyz
  'x, y, z'

loop_
  _atom_site_label
  _atom_site_occupancy
  _atom_site_fract_x
  _atom_site_fract_y
  _atom_site_fract_z
  _atom_site_thermal_displace_type
  _atom_site_B_iso_or_equiv
  _atom_site_type_symbol
  Ge1      1.0000 0.74683  0.74656  0.75911  Biso   1.000  Ge
  Ge2      1.0000 0.29535  0.26322  0.24016  Biso   1.000  Ge
  Yb1      1.0000 0.01928  0.00381  0.99972  Biso   1.000  Yb
  Yb2      1.0000 0.51877  0.50507  0.50111  Biso   1.000  Yb
