data_image0
_cell_length_a       3.42786
_cell_length_b       3.43458
_cell_length_c       5.95232
_cell_angle_alpha    89.9791
_cell_angle_beta     90.0185
_cell_angle_gamma    89.9193

_symmetry_space_group_name_H-M    "P 1"
_symmetry_int_tables_number       1

loop_
  _symmetry_equiv_pos_as_xyz
  'x, y, z'

loop_
  _atom_site_label
  _atom_site_occupancy
  _atom_site_fract_x
  _atom_site_fract_y
  _atom_site_fract_z
  _atom_site_thermal_displace_type
  _atom_site_B_iso_or_equiv
  _atom_site_type_symbol
  Pt1      1.0000 0.52148  0.47315  0.25479  Biso   1.000  Pt
  Pt2      1.0000 0.52263  0.47301  0.70148  Biso   1.000  Pt
  Sn1      1.0000 0.02423  0.97266  0.97753  Biso   1.000  Sn
  Ti1      1.0000 0.02207  0.97364  0.47815  Biso   1.000  Ti
