data_image0
_cell_length_a       4.34854
_cell_length_b       5.93573
_cell_length_c       9.67681
_cell_angle_alpha    86.0571
_cell_angle_beta     77.0305
_cell_angle_gamma    68.497

_symmetry_space_group_name_H-M    "P 1"
_symmetry_int_tables_number       1

loop_
  _symmetry_equiv_pos_as_xyz
  'x, y, z'

loop_
  _atom_site_label
  _atom_site_occupancy
  _atom_site_fract_x
  _atom_site_fract_y
  _atom_site_fract_z
  _atom_site_thermal_displace_type
  _atom_site_B_iso_or_equiv
  _atom_site_type_symbol
  Ge1      1.0000 0.48836  0.13122  0.83280  Biso   1.000  Ge
  Ge2      1.0000 0.50518  0.86854  0.06499  Biso   1.000  Ge
  Ge3      1.0000 0.36490  0.68209  0.53030  Biso   1.000  Ge
  Ge4      1.0000 0.62773  0.31851  0.36752  Biso   1.000  Ge
  Sm1      1.0000 0.18910  0.70300  0.86213  Biso   1.000  Sm
  Sm2      1.0000 0.80413  0.29672  0.03590  Biso   1.000  Sm
  Sm3      1.0000 0.05033  0.23720  0.60310  Biso   1.000  Sm
  Sm4      1.0000 0.94222  0.76375  0.29492  Biso   1.000  Sm
  Zn1      1.0000 0.23882  0.21316  0.24977  Biso   1.000  Zn
  Zn2      1.0000 0.75378  0.78788  0.64783  Biso   1.000  Zn
