data_image0
_cell_length_a       2.92934
_cell_length_b       6.52524
_cell_length_c       4.43143
_cell_angle_alpha    87.7844
_cell_angle_beta     49.0612
_cell_angle_gamma    72.6599

_symmetry_space_group_name_H-M    "P 1"
_symmetry_int_tables_number       1

loop_
  _symmetry_equiv_pos_as_xyz
  'x, y, z'

loop_
  _atom_site_label
  _atom_site_occupancy
  _atom_site_fract_x
  _atom_site_fract_y
  _atom_site_fract_z
  _atom_site_thermal_displace_type
  _atom_site_B_iso_or_equiv
  _atom_site_type_symbol
  O1       1.0000 0.97688  0.17017  0.45074  Biso   1.000  O
  O2       1.0000 0.87909  0.81165  0.81022  Biso   1.000  O
  Pt1      1.0000 0.42957  0.50140  0.63079  Biso   1.000  Pt
  Y1       1.0000 0.10932  0.06736  0.90781  Biso   1.000  Y
