data_image0
_cell_length_a       5.53198
_cell_length_b       5.52445
_cell_length_c       5.52843
_cell_angle_alpha    89.9595
_cell_angle_beta     60.0029
_cell_angle_gamma    119.977

_symmetry_space_group_name_H-M    "P 1"
_symmetry_int_tables_number       1

loop_
  _symmetry_equiv_pos_as_xyz
  'x, y, z'

loop_
  _atom_site_label
  _atom_site_occupancy
  _atom_site_fract_x
  _atom_site_fract_y
  _atom_site_fract_z
  _atom_site_thermal_displace_type
  _atom_site_B_iso_or_equiv
  _atom_site_type_symbol
  Al1      1.0000 0.75207  0.36195  0.87514  Biso   1.000  Al
  Al2      1.0000 0.25007  0.36088  0.37385  Biso   1.000  Al
  Al3      1.0000 0.24899  0.86167  0.37457  Biso   1.000  Al
  Al4      1.0000 0.74946  0.36020  0.37551  Biso   1.000  Al
  Dy1      1.0000 0.49963  0.73604  0.75064  Biso   1.000  Dy
  Lu1      1.0000 0.99978  0.98592  0.00029  Biso   1.000  Lu
