data_image0
_cell_length_a       5.67514
_cell_length_b       5.67239
_cell_length_c       5.67572
_cell_angle_alpha    90.0257
_cell_angle_beta     59.9157
_cell_angle_gamma    120.082

_symmetry_space_group_name_H-M    "P 1"
_symmetry_int_tables_number       1

loop_
  _symmetry_equiv_pos_as_xyz
  'x, y, z'

loop_
  _atom_site_label
  _atom_site_occupancy
  _atom_site_fract_x
  _atom_site_fract_y
  _atom_site_fract_z
  _atom_site_thermal_displace_type
  _atom_site_B_iso_or_equiv
  _atom_site_type_symbol
  Al1      1.0000 0.74945  0.38901  0.88885  Biso   1.000  Al
  Al2      1.0000 0.24803  0.38772  0.39021  Biso   1.000  Al
  Al3      1.0000 0.25036  0.88867  0.38909  Biso   1.000  Al
  Al4      1.0000 0.75181  0.39013  0.38771  Biso   1.000  Al
  Dy1      1.0000 0.50033  0.76416  0.76388  Biso   1.000  Dy
  La1      1.0000 0.00001  0.01364  0.01360  Biso   1.000  La
