data_image0
_cell_length_a       5.22838
_cell_length_b       5.14535
_cell_length_c       4.50573
_cell_angle_alpha    78.6846
_cell_angle_beta     90.0054
_cell_angle_gamma    120.665

_symmetry_space_group_name_H-M    "P 1"
_symmetry_int_tables_number       1

loop_
  _symmetry_equiv_pos_as_xyz
  'x, y, z'

loop_
  _atom_site_label
  _atom_site_occupancy
  _atom_site_fract_x
  _atom_site_fract_y
  _atom_site_fract_z
  _atom_site_thermal_displace_type
  _atom_site_B_iso_or_equiv
  _atom_site_type_symbol
  Ir1      1.0000 0.72554  0.44428  0.96672  Biso   1.000  Ir
  Ir2      1.0000 0.30661  0.60457  0.93061  Biso   1.000  Ir
  Ir3      1.0000 0.46662  0.93210  0.36541  Biso   1.000  Ir
  Ir4      1.0000 0.95442  0.40098  0.49640  Biso   1.000  Ir
  Ir5      1.0000 0.45361  0.40202  0.49573  Biso   1.000  Ir
  Mg1      1.0000 0.99067  0.98188  0.14901  Biso   1.000  Mg
