data_image0
_cell_length_a       3.61185
_cell_length_b       6.50406
_cell_length_c       5.28979
_cell_angle_alpha    65.0591
_cell_angle_beta     47.0571
_cell_angle_gamma    60.8465

_symmetry_space_group_name_H-M    "P 1"
_symmetry_int_tables_number       1

loop_
  _symmetry_equiv_pos_as_xyz
  'x, y, z'

loop_
  _atom_site_label
  _atom_site_occupancy
  _atom_site_fract_x
  _atom_site_fract_y
  _atom_site_fract_z
  _atom_site_thermal_displace_type
  _atom_site_B_iso_or_equiv
  _atom_site_type_symbol
  S1       1.0000 0.09999  0.08858  0.28022  Biso   1.000  S
  Sb1      1.0000 0.53043  0.56216  0.34483  Biso   1.000  Sb
  Yb1      1.0000 0.19614  0.95712  0.80317  Biso   1.000  Yb
