data_image0
_cell_length_a       5.6729
_cell_length_b       5.66922
_cell_length_c       5.6799
_cell_angle_alpha    89.6554
_cell_angle_beta     89.5737
_cell_angle_gamma    91.2772

_symmetry_space_group_name_H-M    "P 1"
_symmetry_int_tables_number       1

loop_
  _symmetry_equiv_pos_as_xyz
  'x, y, z'

loop_
  _atom_site_label
  _atom_site_occupancy
  _atom_site_fract_x
  _atom_site_fract_y
  _atom_site_fract_z
  _atom_site_thermal_displace_type
  _atom_site_B_iso_or_equiv
  _atom_site_type_symbol
  Au1      1.0000 0.99314  0.01851  0.02142  Biso   1.000  Au
  C1       1.0000 0.49354  0.50799  0.50634  Biso   1.000  C
  K1       1.0000 0.99222  0.49710  0.50865  Biso   1.000  K
  K2       1.0000 0.48717  0.49771  0.00430  Biso   1.000  K
  K3       1.0000 0.49995  0.00566  0.48538  Biso   1.000  K
