data_image0
_cell_length_a       5.2981
_cell_length_b       5.47613
_cell_length_c       5.51648
_cell_angle_alpha    89.9862
_cell_angle_beta     89.3223
_cell_angle_gamma    89.9327

_symmetry_space_group_name_H-M    "P 1"
_symmetry_int_tables_number       1

loop_
  _symmetry_equiv_pos_as_xyz
  'x, y, z'

loop_
  _atom_site_label
  _atom_site_occupancy
  _atom_site_fract_x
  _atom_site_fract_y
  _atom_site_fract_z
  _atom_site_thermal_displace_type
  _atom_site_B_iso_or_equiv
  _atom_site_type_symbol
  Au1      1.0000 0.01168  0.01288  0.96659  Biso   1.000  Au
  K1       1.0000 0.00904  0.51711  0.48686  Biso   1.000  K
  K2       1.0000 0.50834  0.50143  0.97113  Biso   1.000  K
  K3       1.0000 0.50180  0.00922  0.45596  Biso   1.000  K
  N1       1.0000 0.50902  0.50895  0.47387  Biso   1.000  N
