data_image0
_cell_length_a       3.17421
_cell_length_b       3.17777
_cell_length_c       5.90035
_cell_angle_alpha    75.1044
_cell_angle_beta     75.5915
_cell_angle_gamma    55.5094

_symmetry_space_group_name_H-M    "P 1"
_symmetry_int_tables_number       1

loop_
  _symmetry_equiv_pos_as_xyz
  'x, y, z'

loop_
  _atom_site_label
  _atom_site_occupancy
  _atom_site_fract_x
  _atom_site_fract_y
  _atom_site_fract_z
  _atom_site_thermal_displace_type
  _atom_site_B_iso_or_equiv
  _atom_site_type_symbol
  K1       1.0000 0.78374  0.29584  0.03107  Biso   1.000  K
  O1       1.0000 0.01391  0.52527  0.35373  Biso   1.000  O
  O2       1.0000 0.56026  0.06607  0.70786  Biso   1.000  O
  Rh1      1.0000 0.28704  0.79613  0.53086  Biso   1.000  Rh
