data_image0
_cell_length_a       4.0536
_cell_length_b       4.08351
_cell_length_c       5.88479
_cell_angle_alpha    110.226
_cell_angle_beta     110.346
_cell_angle_gamma    90.1138

_symmetry_space_group_name_H-M    "P 1"
_symmetry_int_tables_number       1

loop_
  _symmetry_equiv_pos_as_xyz
  'x, y, z'

loop_
  _atom_site_label
  _atom_site_occupancy
  _atom_site_fract_x
  _atom_site_fract_y
  _atom_site_fract_z
  _atom_site_thermal_displace_type
  _atom_site_B_iso_or_equiv
  _atom_site_type_symbol
  Ge1      1.0000 0.63817  0.62926  0.24797  Biso   1.000  Ge
  Ge2      1.0000 0.40253  0.38923  0.77200  Biso   1.000  Ge
  Rh1      1.0000 0.27101  0.75954  0.51190  Biso   1.000  Rh
  Rh2      1.0000 0.76955  0.25765  0.50830  Biso   1.000  Rh
  Sc1      1.0000 0.01831  0.00762  0.00704  Biso   1.000  Sc
