data_image0
_cell_length_a       4.20186
_cell_length_b       5.91947
_cell_length_c       5.60663
_cell_angle_alpha    94.3988
_cell_angle_beta     112.282
_cell_angle_gamma    69.3638

_symmetry_space_group_name_H-M    "P 1"
_symmetry_int_tables_number       1

loop_
  _symmetry_equiv_pos_as_xyz
  'x, y, z'

loop_
  _atom_site_label
  _atom_site_occupancy
  _atom_site_fract_x
  _atom_site_fract_y
  _atom_site_fract_z
  _atom_site_thermal_displace_type
  _atom_site_B_iso_or_equiv
  _atom_site_type_symbol
  Na1      1.0000 0.77911  0.68244  0.22120  Biso   1.000  Na
  Na2      1.0000 0.23133  0.38045  0.81953  Biso   1.000  Na
  Pd1      1.0000 0.62748  0.18344  0.41841  Biso   1.000  Pd
  Pd2      1.0000 0.38134  0.88127  0.62397  Biso   1.000  Pd
  Si1      1.0000 0.04994  0.13554  0.21659  Biso   1.000  Si
  Si2      1.0000 0.95984  0.92853  0.82634  Biso   1.000  Si
