data_image0
_cell_length_a       4.198
_cell_length_b       4.20748
_cell_length_c       4.71238
_cell_angle_alpha    89.783
_cell_angle_beta     90.0157
_cell_angle_gamma    120.323

_symmetry_space_group_name_H-M    "P 1"
_symmetry_int_tables_number       1

loop_
  _symmetry_equiv_pos_as_xyz
  'x, y, z'

loop_
  _atom_site_label
  _atom_site_occupancy
  _atom_site_fract_x
  _atom_site_fract_y
  _atom_site_fract_z
  _atom_site_thermal_displace_type
  _atom_site_B_iso_or_equiv
  _atom_site_type_symbol
  P1       1.0000 0.65217  0.28381  0.48540  Biso   1.000  P
  Sr1      1.0000 0.99041  0.94686  0.98902  Biso   1.000  Sr
  V1       1.0000 0.31984  0.61685  0.48874  Biso   1.000  V
