data_image0
_cell_length_a       4.05287
_cell_length_b       4.06105
_cell_length_c       6.18873
_cell_angle_alpha    109.21
_cell_angle_beta     109.038
_cell_angle_gamma    90.2142

_symmetry_space_group_name_H-M    "P 1"
_symmetry_int_tables_number       1

loop_
  _symmetry_equiv_pos_as_xyz
  'x, y, z'

loop_
  _atom_site_label
  _atom_site_occupancy
  _atom_site_fract_x
  _atom_site_fract_y
  _atom_site_fract_z
  _atom_site_thermal_displace_type
  _atom_site_B_iso_or_equiv
  _atom_site_type_symbol
  Ce1      1.0000 0.98766  0.95218  0.97896  Biso   1.000  Ce
  Ge1      1.0000 0.64065  0.60498  0.27897  Biso   1.000  Ge
  Rh1      1.0000 0.42145  0.38719  0.84636  Biso   1.000  Rh
  Rh2      1.0000 0.26427  0.72624  0.52623  Biso   1.000  Rh
  Rh3      1.0000 0.76140  0.22841  0.52454  Biso   1.000  Rh
