data_image0
_cell_length_a       3.60069
_cell_length_b       4.62067
_cell_length_c       4.77304
_cell_angle_alpha    88.6335
_cell_angle_beta     81.9246
_cell_angle_gamma    90.2173

_symmetry_space_group_name_H-M    "P 1"
_symmetry_int_tables_number       1

loop_
  _symmetry_equiv_pos_as_xyz
  'x, y, z'

loop_
  _atom_site_label
  _atom_site_occupancy
  _atom_site_fract_x
  _atom_site_fract_y
  _atom_site_fract_z
  _atom_site_thermal_displace_type
  _atom_site_B_iso_or_equiv
  _atom_site_type_symbol
  Rh1      1.0000 0.49342  0.48373  0.02742  Biso   1.000  Rh
  Rh2      1.0000 0.54506  0.99355  0.61149  Biso   1.000  Rh
  Sb1      1.0000 0.09384  0.48714  0.57877  Biso   1.000  Sb
  Sm1      1.0000 0.99720  0.98415  0.09300  Biso   1.000  Sm
