data_image0
_cell_length_a       5.70101
_cell_length_b       5.92624
_cell_length_c       5.73081
_cell_angle_alpha    57.954
_cell_angle_beta     39.009
_cell_angle_gamma    58.5412

_symmetry_space_group_name_H-M    "P 1"
_symmetry_int_tables_number       1

loop_
  _symmetry_equiv_pos_as_xyz
  'x, y, z'

loop_
  _atom_site_label
  _atom_site_occupancy
  _atom_site_fract_x
  _atom_site_fract_y
  _atom_site_fract_z
  _atom_site_thermal_displace_type
  _atom_site_B_iso_or_equiv
  _atom_site_type_symbol
  Ca1      1.0000 0.51696  0.50177  0.52500  Biso   1.000  Ca
  Ca2      1.0000 0.90875  0.11234  0.91560  Biso   1.000  Ca
  Li1      1.0000 0.70804  0.82158  0.72698  Biso   1.000  Li
  S1       1.0000 0.21688  0.08227  0.22198  Biso   1.000  S
