data_image0
_cell_length_a       4.27674
_cell_length_b       5.47578
_cell_length_c       3.30721
_cell_angle_alpha    72.1079
_cell_angle_beta     89.4539
_cell_angle_gamma    66.8292

_symmetry_space_group_name_H-M    "P 1"
_symmetry_int_tables_number       1

loop_
  _symmetry_equiv_pos_as_xyz
  'x, y, z'

loop_
  _atom_site_label
  _atom_site_occupancy
  _atom_site_fract_x
  _atom_site_fract_y
  _atom_site_fract_z
  _atom_site_thermal_displace_type
  _atom_site_B_iso_or_equiv
  _atom_site_type_symbol
  Ag1      1.0000 0.70867  0.56043  0.59783  Biso   1.000  Ag
  Ag2      1.0000 0.03674  0.89430  0.93400  Biso   1.000  Ag
  Cd1      1.0000 0.35381  0.27272  0.23977  Biso   1.000  Cd
  N1       1.0000 0.51623  0.93464  0.90982  Biso   1.000  N
