data_image0
_cell_length_a       4.27756
_cell_length_b       3.90829
_cell_length_c       4.24919
_cell_angle_alpha    90.7246
_cell_angle_beta     60.8045
_cell_angle_gamma    119.216

_symmetry_space_group_name_H-M    "P 1"
_symmetry_int_tables_number       1

loop_
  _symmetry_equiv_pos_as_xyz
  'x, y, z'

loop_
  _atom_site_label
  _atom_site_occupancy
  _atom_site_fract_x
  _atom_site_fract_y
  _atom_site_fract_z
  _atom_site_thermal_displace_type
  _atom_site_B_iso_or_equiv
  _atom_site_type_symbol
  Cu1      1.0000 0.54627  0.74588  0.72235  Biso   1.000  Cu
  Ga1      1.0000 0.04467  0.99335  0.97536  Biso   1.000  Ga
  Li1      1.0000 0.53055  0.23178  0.23492  Biso   1.000  Li
  Li2      1.0000 0.04455  0.49581  0.47346  Biso   1.000  Li
