data_image0
_cell_length_a       3.26891
_cell_length_b       5.72168
_cell_length_c       7.08787
_cell_angle_alpha    112.955
_cell_angle_beta     101.841
_cell_angle_gamma    55.1347

_symmetry_space_group_name_H-M    "P 1"
_symmetry_int_tables_number       1

loop_
  _symmetry_equiv_pos_as_xyz
  'x, y, z'

loop_
  _atom_site_label
  _atom_site_occupancy
  _atom_site_fract_x
  _atom_site_fract_y
  _atom_site_fract_z
  _atom_site_thermal_displace_type
  _atom_site_B_iso_or_equiv
  _atom_site_type_symbol
  Ge1      1.0000 0.13090  0.58646  0.16722  Biso   1.000  Ge
  Ge2      1.0000 0.25006  0.39649  0.78706  Biso   1.000  Ge
  U1       1.0000 0.15247  0.00534  0.00519  Biso   1.000  U
  U2       1.0000 0.59734  0.77087  0.53612  Biso   1.000  U
  U3       1.0000 0.79474  0.20846  0.40984  Biso   1.000  U
