data_image0
_cell_length_a       2.89508
_cell_length_b       4.75934
_cell_length_c       5.14851
_cell_angle_alpha    53.9363
_cell_angle_beta     73.6155
_cell_angle_gamma    72.0699

_symmetry_space_group_name_H-M    "P 1"
_symmetry_int_tables_number       1

loop_
  _symmetry_equiv_pos_as_xyz
  'x, y, z'

loop_
  _atom_site_label
  _atom_site_occupancy
  _atom_site_fract_x
  _atom_site_fract_y
  _atom_site_fract_z
  _atom_site_thermal_displace_type
  _atom_site_B_iso_or_equiv
  _atom_site_type_symbol
  Li1      1.0000 0.24813  0.27351  0.25506  Biso   1.000  Li
  Os1      1.0000 0.47203  0.54531  0.53639  Biso   1.000  Os
  Os2      1.0000 0.02433  0.98556  0.99302  Biso   1.000  Os
  Si1      1.0000 0.74714  0.77699  0.75413  Biso   1.000  Si
