data_image0
_cell_length_a       4.94416
_cell_length_b       5.03953
_cell_length_c       4.70251
_cell_angle_alpha    60.8193
_cell_angle_beta     62.6982
_cell_angle_gamma    56.4137

_symmetry_space_group_name_H-M    "P 1"
_symmetry_int_tables_number       1

loop_
  _symmetry_equiv_pos_as_xyz
  'x, y, z'

loop_
  _atom_site_label
  _atom_site_occupancy
  _atom_site_fract_x
  _atom_site_fract_y
  _atom_site_fract_z
  _atom_site_thermal_displace_type
  _atom_site_B_iso_or_equiv
  _atom_site_type_symbol
  Cd1      1.0000 0.25828  0.24034  0.21489  Biso   1.000  Cd
  Eu1      1.0000 0.75933  0.74186  0.71374  Biso   1.000  Eu
  Pd1      1.0000 0.00510  0.99540  0.96244  Biso   1.000  Pd
  Pd2      1.0000 0.51136  0.48651  0.46522  Biso   1.000  Pd
