data_image0
_cell_length_a       4.49618
_cell_length_b       3.85862
_cell_length_c       3.84143
_cell_angle_alpha    52.2233
_cell_angle_beta     63.6567
_cell_angle_gamma    62.507

_symmetry_space_group_name_H-M    "P 1"
_symmetry_int_tables_number       1

loop_
  _symmetry_equiv_pos_as_xyz
  'x, y, z'

loop_
  _atom_site_label
  _atom_site_occupancy
  _atom_site_fract_x
  _atom_site_fract_y
  _atom_site_fract_z
  _atom_site_thermal_displace_type
  _atom_site_B_iso_or_equiv
  _atom_site_type_symbol
  B1       1.0000 0.90815  0.04327  0.02740  Biso   1.000  B
  Li1      1.0000 0.28045  0.29496  0.28430  Biso   1.000  Li
  Li2      1.0000 0.54163  0.53017  0.50360  Biso   1.000  Li
  Pt1      1.0000 0.88253  0.73314  0.71430  Biso   1.000  Pt
