data_image0
_cell_length_a       5.14801
_cell_length_b       3.21615
_cell_length_c       5.54097
_cell_angle_alpha    90.0048
_cell_angle_beta     89.9652
_cell_angle_gamma    89.989

_symmetry_space_group_name_H-M    "P 1"
_symmetry_int_tables_number       1

loop_
  _symmetry_equiv_pos_as_xyz
  'x, y, z'

loop_
  _atom_site_label
  _atom_site_occupancy
  _atom_site_fract_x
  _atom_site_fract_y
  _atom_site_fract_z
  _atom_site_thermal_displace_type
  _atom_site_B_iso_or_equiv
  _atom_site_type_symbol
  O1       1.0000 0.39865  0.24641  0.24300  Biso   1.000  O
  O2       1.0000 0.89886  0.74642  0.79539  Biso   1.000  O
  Ti1      1.0000 0.16978  0.74598  0.09144  Biso   1.000  Ti
  Ti2      1.0000 0.67000  0.24671  0.94732  Biso   1.000  Ti
  Tm1      1.0000 0.64851  0.74617  0.43770  Biso   1.000  Tm
  Tm2      1.0000 0.14887  0.24630  0.60086  Biso   1.000  Tm
