data_image0
_cell_length_a       4.19339
_cell_length_b       4.07879
_cell_length_c       8.16003
_cell_angle_alpha    90.0409
_cell_angle_beta     90.1896
_cell_angle_gamma    89.9776

_symmetry_space_group_name_H-M    "P 1"
_symmetry_int_tables_number       1

loop_
  _symmetry_equiv_pos_as_xyz
  'x, y, z'

loop_
  _atom_site_label
  _atom_site_occupancy
  _atom_site_fract_x
  _atom_site_fract_y
  _atom_site_fract_z
  _atom_site_thermal_displace_type
  _atom_site_B_iso_or_equiv
  _atom_site_type_symbol
  Ge1      1.0000 0.25004  0.27243  0.27385  Biso   1.000  Ge
  Ge2      1.0000 0.75286  0.77285  0.70500  Biso   1.000  Ge
  Lu1      1.0000 0.74918  0.77234  0.35543  Biso   1.000  Lu
  Lu2      1.0000 0.25234  0.27247  0.62348  Biso   1.000  Lu
  Na1      1.0000 0.25873  0.77539  0.98875  Biso   1.000  Na
  Na2      1.0000 0.75910  0.27559  0.99020  Biso   1.000  Na
