data_image0
_cell_length_a       3.4902
_cell_length_b       4.76555
_cell_length_c       11.4764
_cell_angle_alpha    71.1471
_cell_angle_beta     99.1555
_cell_angle_gamma    136.077

_symmetry_space_group_name_H-M    "P 1"
_symmetry_int_tables_number       1

loop_
  _symmetry_equiv_pos_as_xyz
  'x, y, z'

loop_
  _atom_site_label
  _atom_site_occupancy
  _atom_site_fract_x
  _atom_site_fract_y
  _atom_site_fract_z
  _atom_site_thermal_displace_type
  _atom_site_B_iso_or_equiv
  _atom_site_type_symbol
  As1      1.0000 0.62000  0.10726  0.11497  Biso   1.000  As
  As2      1.0000 0.83991  0.58476  0.59732  Biso   1.000  As
  As3      1.0000 0.55799  0.42191  0.28179  Biso   1.000  As
  As4      1.0000 0.18914  0.81420  0.84902  Biso   1.000  As
  B1       1.0000 0.47613  0.21658  0.47442  Biso   1.000  B
  Ti1      1.0000 0.79397  0.01117  0.66530  Biso   1.000  Ti
  Ti2      1.0000 0.14082  0.21749  0.94040  Biso   1.000  Ti
  Ti3      1.0000 0.51349  0.80308  0.39838  Biso   1.000  Ti
