data_image0
_cell_length_a       4.20571
_cell_length_b       4.22023
_cell_length_c       6.04889
_cell_angle_alpha    110.381
_cell_angle_beta     110.316
_cell_angle_gamma    89.9895

_symmetry_space_group_name_H-M    "P 1"
_symmetry_int_tables_number       1

loop_
  _symmetry_equiv_pos_as_xyz
  'x, y, z'

loop_
  _atom_site_label
  _atom_site_occupancy
  _atom_site_fract_x
  _atom_site_fract_y
  _atom_site_fract_z
  _atom_site_thermal_displace_type
  _atom_site_B_iso_or_equiv
  _atom_site_type_symbol
  As1      1.0000 0.37958  0.37450  0.71766  Biso   1.000  As
  As2      1.0000 0.64344  0.63914  0.24637  Biso   1.000  As
  Pr1      1.0000 0.01264  0.00683  0.98315  Biso   1.000  Pr
  Ru1      1.0000 0.26224  0.75785  0.48364  Biso   1.000  Ru
  Ru2      1.0000 0.76132  0.25619  0.48106  Biso   1.000  Ru
