data_image0
_cell_length_a       5.45626
_cell_length_b       6.68229
_cell_length_c       6.94654
_cell_angle_alpha    87.1258
_cell_angle_beta     104.284
_cell_angle_gamma    54.8406

_symmetry_space_group_name_H-M    "P 1"
_symmetry_int_tables_number       1

loop_
  _symmetry_equiv_pos_as_xyz
  'x, y, z'

loop_
  _atom_site_label
  _atom_site_occupancy
  _atom_site_fract_x
  _atom_site_fract_y
  _atom_site_fract_z
  _atom_site_thermal_displace_type
  _atom_site_B_iso_or_equiv
  _atom_site_type_symbol
  Ho1      1.0000 0.89822  0.27978  0.24529  Biso   1.000  Ho
  Ho2      1.0000 0.09357  0.67517  0.23238  Biso   1.000  Ho
  Ho3      1.0000 0.13680  0.71298  0.71213  Biso   1.000  Ho
  Ho4      1.0000 0.83637  0.27565  0.73261  Biso   1.000  Ho
  Os1      1.0000 0.59573  0.72844  0.45860  Biso   1.000  Os
  Os2      1.0000 0.32618  0.22438  0.61345  Biso   1.000  Os
  Si1      1.0000 0.41184  0.23770  0.98710  Biso   1.000  Si
  Si2      1.0000 0.62235  0.79699  0.81952  Biso   1.000  Si
  Si3      1.0000 0.39974  0.86543  0.09388  Biso   1.000  Si
  Si4      1.0000 0.58601  0.09294  0.36335  Biso   1.000  Si
