data_image0
_cell_length_a       4.39684
_cell_length_b       5.58327
_cell_length_c       4.41219
_cell_angle_alpha    66.6504
_cell_angle_beta     60.0113
_cell_angle_gamma    66.5235

_symmetry_space_group_name_H-M    "P 1"
_symmetry_int_tables_number       1

loop_
  _symmetry_equiv_pos_as_xyz
  'x, y, z'

loop_
  _atom_site_label
  _atom_site_occupancy
  _atom_site_fract_x
  _atom_site_fract_y
  _atom_site_fract_z
  _atom_site_thermal_displace_type
  _atom_site_B_iso_or_equiv
  _atom_site_type_symbol
  Nb1      1.0000 0.23670  0.24687  0.26167  Biso   1.000  Nb
  Rh1      1.0000 0.95836  0.08667  0.97898  Biso   1.000  Rh
  Rh2      1.0000 0.52638  0.37316  0.55262  Biso   1.000  Rh
  Th1      1.0000 0.73744  0.74216  0.76252  Biso   1.000  Th
