data_image0
_cell_length_a       5.17154
_cell_length_b       5.37786
_cell_length_c       5.25133
_cell_angle_alpha    119.139
_cell_angle_beta     90.0538
_cell_angle_gamma    90.0271

_symmetry_space_group_name_H-M    "P 1"
_symmetry_int_tables_number       1

loop_
  _symmetry_equiv_pos_as_xyz
  'x, y, z'

loop_
  _atom_site_label
  _atom_site_occupancy
  _atom_site_fract_x
  _atom_site_fract_y
  _atom_site_fract_z
  _atom_site_thermal_displace_type
  _atom_site_B_iso_or_equiv
  _atom_site_type_symbol
  Ge1      1.0000 0.03121  0.03984  0.11761  Biso   1.000  Ge
  Nb1      1.0000 0.53102  0.70480  0.95305  Biso   1.000  Nb
  Nb2      1.0000 0.28661  0.04115  0.61853  Biso   1.000  Nb
  Nb3      1.0000 0.02874  0.53929  0.61807  Biso   1.000  Nb
  Nb4      1.0000 0.53205  0.37503  0.28517  Biso   1.000  Nb
  Nb5      1.0000 0.77522  0.03791  0.61725  Biso   1.000  Nb
  Nb6      1.0000 0.03440  0.53984  0.11825  Biso   1.000  Nb
