data_image0
_cell_length_a       5.17433
_cell_length_b       5.21381
_cell_length_c       5.19019
_cell_angle_alpha    90.1307
_cell_angle_beta     89.8714
_cell_angle_gamma    89.9411

_symmetry_space_group_name_H-M    "P 1"
_symmetry_int_tables_number       1

loop_
  _symmetry_equiv_pos_as_xyz
  'x, y, z'

loop_
  _atom_site_label
  _atom_site_occupancy
  _atom_site_fract_x
  _atom_site_fract_y
  _atom_site_fract_z
  _atom_site_thermal_displace_type
  _atom_site_B_iso_or_equiv
  _atom_site_type_symbol
  As1      1.0000 0.02648  0.04264  0.04252  Biso   1.000  As
  Nb1      1.0000 0.52228  0.79043  0.04883  Biso   1.000  Nb
  Nb2      1.0000 0.27672  0.04463  0.53944  Biso   1.000  Nb
  Nb3      1.0000 0.02693  0.55728  0.79370  Biso   1.000  Nb
  Nb4      1.0000 0.53095  0.29267  0.03766  Biso   1.000  Nb
  Nb5      1.0000 0.77710  0.03978  0.54568  Biso   1.000  Nb
  Nb6      1.0000 0.02607  0.52826  0.29382  Biso   1.000  Nb
  Pt1      1.0000 0.52661  0.54187  0.54354  Biso   1.000  Pt
