data_image0
_cell_length_a       3.40839
_cell_length_b       4.52094
_cell_length_c       5.11046
_cell_angle_alpha    79.9278
_cell_angle_beta     70.0645
_cell_angle_gamma    89.8225

_symmetry_space_group_name_H-M    "P 1"
_symmetry_int_tables_number       1

loop_
  _symmetry_equiv_pos_as_xyz
  'x, y, z'

loop_
  _atom_site_label
  _atom_site_occupancy
  _atom_site_fract_x
  _atom_site_fract_y
  _atom_site_fract_z
  _atom_site_thermal_displace_type
  _atom_site_B_iso_or_equiv
  _atom_site_type_symbol
  Rh1      1.0000 0.40203  0.41878  0.99373  Biso   1.000  Rh
  Rh2      1.0000 0.62596  0.00814  0.57937  Biso   1.000  Rh
  Sb1      1.0000 0.13628  0.50549  0.54169  Biso   1.000  Sb
  Sn1      1.0000 0.88733  0.91721  0.03739  Biso   1.000  Sn
