data_image0
_cell_length_a       3.64291
_cell_length_b       3.67682
_cell_length_c       7.68945
_cell_angle_alpha    89.8547
_cell_angle_beta     89.7946
_cell_angle_gamma    92.6511

_symmetry_space_group_name_H-M    "P 1"
_symmetry_int_tables_number       1

loop_
  _symmetry_equiv_pos_as_xyz
  'x, y, z'

loop_
  _atom_site_label
  _atom_site_occupancy
  _atom_site_fract_x
  _atom_site_fract_y
  _atom_site_fract_z
  _atom_site_thermal_displace_type
  _atom_site_B_iso_or_equiv
  _atom_site_type_symbol
  C1       1.0000 0.48652  0.00047  0.47305  Biso   1.000  C
  C2       1.0000 0.99691  0.49964  0.97307  Biso   1.000  C
  Co1      1.0000 0.49589  0.49957  0.97298  Biso   1.000  Co
  Co2      1.0000 0.48787  0.50056  0.47314  Biso   1.000  Co
  La1      1.0000 0.98430  0.00144  0.72342  Biso   1.000  La
  La2      1.0000 0.98945  0.99973  0.22265  Biso   1.000  La
