data_image0
_cell_length_a       4.97104
_cell_length_b       5.03407
_cell_length_c       5.02343
_cell_angle_alpha    59.2758
_cell_angle_beta     60.4093
_cell_angle_gamma    60.3768

_symmetry_space_group_name_H-M    "P 1"
_symmetry_int_tables_number       1

loop_
  _symmetry_equiv_pos_as_xyz
  'x, y, z'

loop_
  _atom_site_label
  _atom_site_occupancy
  _atom_site_fract_x
  _atom_site_fract_y
  _atom_site_fract_z
  _atom_site_thermal_displace_type
  _atom_site_B_iso_or_equiv
  _atom_site_type_symbol
  Au1      1.0000 0.26324  0.25702  0.25004  Biso   1.000  Au
  Ho1      1.0000 0.51470  0.50832  0.49769  Biso   1.000  Ho
  Ho2      1.0000 0.01540  0.00769  0.99912  Biso   1.000  Ho
  Pd1      1.0000 0.77017  0.75873  0.74167  Biso   1.000  Pd
