data_image0
_cell_length_a       4.2837
_cell_length_b       4.28246
_cell_length_c       5.8228
_cell_angle_alpha    111.651
_cell_angle_beta     111.253
_cell_angle_gamma    90.0609

_symmetry_space_group_name_H-M    "P 1"
_symmetry_int_tables_number       1

loop_
  _symmetry_equiv_pos_as_xyz
  'x, y, z'

loop_
  _atom_site_label
  _atom_site_occupancy
  _atom_site_fract_x
  _atom_site_fract_y
  _atom_site_fract_z
  _atom_site_thermal_displace_type
  _atom_site_B_iso_or_equiv
  _atom_site_type_symbol
  Ce1      1.0000 0.31931  0.33878  0.65858  Biso   1.000  Ce
  Fe1      1.0000 0.99604  0.00920  0.00347  Biso   1.000  Fe
  Ge1      1.0000 0.58589  0.10090  0.18598  Biso   1.000  Ge
  Ge2      1.0000 0.76495  0.78344  0.54986  Biso   1.000  Ge
  Ge3      1.0000 0.08380  0.60101  0.18545  Biso   1.000  Ge
